 &NAM_DIAG_ISBAn
   LPGD=.TRUE.,
   LSURF_MISC_BUDGET=.TRUE.,
 /
 &NAM_DIAG_SURFn
   LSURF_BUDGET=.TRUE.,
   N2M=2,
 /
 &NAM_ISBAn
   CSCOND='NP89',
 /
 &NAM_SEAFLUXn
   CSEA_FLUX='ECUME',
   LPWG=.FALSE.,
   LPRECIP=.FALSE.,
   LPWEBB=.FALSE.,
 /
 &NAM_SSOn
   CROUGH="Z01D",
   XFRACZ0=5.,
 /
 &NAM_SURF_ATM
   XRIMAX=0.2,
 /
 &NAM_WRITE_DIAG_SURFn
 /
 &NAM_WRITE_SURF_ATM
   LNOWRITE_TEXFILE=.TRUE.,
 /

